LTspice 26.0.2 for Windows
Circuit: C:\Users\Administrator\Documents\Schem_crkt_1074.net
Start Time: Sun Jun 14 05:25:37 2026

.step rload=5
solver = Normal
Maximum thread count: 4
tnom = 27
temp = 27
method = trap
Direct Newton iteration succeeded in finding operating point.

.step rload=10
Direct Newton iteration succeeded in finding operating point.

.step rload=20
Direct Newton iteration succeeded in finding operating point.
Total elapsed time: 3.971 seconds.

Files loaded:
C:\Users\Administrator\Documents\Schem_crkt_1074.net
C:\Users\Administrator\AppData\Local\LTspice\lib\cmp\standard.dio
C:\Users\Administrator\AppData\Local\LTspice\lib\sub\LT1074.sub


Measurement: out_avg
  step	AVG(V(OUT) )	FROM	TO
     1	5.12613948919	0.0015	0.002
     2	5.12255089627	0.0015	0.002
     3	5.09990661213	0.0015	0.002

Measurement: out_max
  step	MAX(V(OUT) )	FROM	TO
     1	5.14604663849	0.0015	0.002
     2	5.13809108734	0.0015	0.002
     3	5.13563966751	0.0015	0.002

Measurement: out_min
  step	MIN(V(OUT) )	FROM	TO
     1	5.10735750198	0.0015	0.002
     2	5.10519170761	0.0015	0.002
     3	5.05254077911	0.0015	0.002

Measurement: out_ripple_pp
  step	'OUT_MAX-OUT_MIN'
     1	0.0386891365051
     2	0.0328993797302
     3	0.0830988883972

Measurement: iload_avg
  step	AVG((V(OUT)/{RLOAD}) )	FROM	TO
     1	1.02522789784	0.0015	0.002
     2	0.512255089627	0.0015	0.002
     3	0.254995330607	0.0015	0.002

Measurement: t_settle
  step	V(OUT)=4.8 
     1	0.00102071561573
     2	0.00100311122764
     3	0.000995158435042

Measurement: tsw
  step	tsw	FROM	TO
     1	9.8486209568e-06	0.00150242543144	0.00151227405239
     2	9.85111714051e-06	0.0015079895691	0.00151784068624
     3	4.17343392501e-07	0.00150400222788	0.00150441957127

Measurement: fsw_meas
  step	'1/TSW'
     1	101537.058273
     2	101511.329704
     3	2396108.37974

Measurement: out_filt_avg
  step	AVG(V(OUT_FILT) )	FROM	TO
     1	5.02577197177	0.0015	0.002
     2	5.0717658855	0.0015	0.002
     3	5.07344857504	0.0015	0.002

Measurement: out_filt_max
  step	MAX(V(OUT_FILT) )	FROM	TO
     1	5.03220415115	0.0015	0.002
     2	5.07385778427	0.0015	0.002
     3	5.09681367874	0.0015	0.002

Measurement: out_filt_min
  step	MIN(V(OUT_FILT) )	FROM	TO
     1	5.02128458023	0.0015	0.002
     2	5.06871795654	0.0015	0.002
     3	5.03642320633	0.0015	0.002

Measurement: out_filt_ripple_pp
  step	'OUT_FILT_MAX-OUT_FILT_MIN'
     1	0.0109195709229
     2	0.00513982772827
     3	0.0603904724121

Measurement: vin_src_avg
  step	AVG(V(VIN_SRC) )	FROM	TO
     1	19.993834237	0.0015	0.002
     2	19.996805138	0.0015	0.002
     3	19.9981438368	0.0015	0.002

Measurement: in_avg
  step	AVG(V(IN) )	FROM	TO
     1	19.9630056083	0.0015	0.002
     2	19.9808309517	0.0015	0.002
     3	19.9888629565	0.0015	0.002

Measurement: in_max
  step	MAX(V(IN) )	FROM	TO
     1	19.9747047424	0.0015	0.002
     2	19.9866466522	0.0015	0.002
     3	19.9959373474	0.0015	0.002

Measurement: in_min
  step	MIN(V(IN) )	FROM	TO
     1	19.9234752655	0.0015	0.002
     2	19.9540538788	0.0015	0.002
     3	19.9657478333	0.0015	0.002

Measurement: vin_droop_avg
  step	'VIN_SRC_AVG-IN_AVG'
     1	0.030828628778
     2	0.0159741863072
     3	0.00928088022789

Measurement: in_ripple_pp
  step	'IN_MAX-IN_MIN'
     1	0.0512294769287
     2	0.0325927734375
     3	0.0301895141602
