LTspice 26.0.2 for Windows
Circuit: C:\Users\Administrator\Desktop\da636372-2fe8-4984-b35e-be6bc09d6a2b\Low_Pass.net
Start Time: Sat Jun 27 07:56:04 2026

.step l_val=1.273e-05 c_val=1.273e-05 r_val=0.8
solver = Normal
Maximum thread count: 4
tnom = 27
temp = 27
method = trap
.OP point found by inspection.
.OP point found by inspection.

.step l_val=1.5915e-05 c_val=1.273e-05 r_val=0.8
.OP point found by inspection.
.OP point found by inspection.

.step l_val=1.91e-05 c_val=1.273e-05 r_val=0.8
.OP point found by inspection.
.OP point found by inspection.

.step l_val=1.273e-05 c_val=1.5915e-05 r_val=0.8
.OP point found by inspection.
.OP point found by inspection.

.step l_val=1.5915e-05 c_val=1.5915e-05 r_val=0.8
.OP point found by inspection.
.OP point found by inspection.

.step l_val=1.91e-05 c_val=1.5915e-05 r_val=0.8
.OP point found by inspection.
.OP point found by inspection.

.step l_val=1.273e-05 c_val=1.91e-05 r_val=0.8
.OP point found by inspection.
.OP point found by inspection.

.step l_val=1.5915e-05 c_val=1.91e-05 r_val=0.8
.OP point found by inspection.
.OP point found by inspection.

.step l_val=1.91e-05 c_val=1.91e-05 r_val=0.8
.OP point found by inspection.
.OP point found by inspection.

.step l_val=1.273e-05 c_val=1.273e-05 r_val=1
.OP point found by inspection.
.OP point found by inspection.

.step l_val=1.5915e-05 c_val=1.273e-05 r_val=1
.OP point found by inspection.
.OP point found by inspection.

.step l_val=1.91e-05 c_val=1.273e-05 r_val=1
.OP point found by inspection.
.OP point found by inspection.

.step l_val=1.273e-05 c_val=1.5915e-05 r_val=1
.OP point found by inspection.
.OP point found by inspection.

.step l_val=1.5915e-05 c_val=1.5915e-05 r_val=1
.OP point found by inspection.
.OP point found by inspection.

.step l_val=1.91e-05 c_val=1.5915e-05 r_val=1
.OP point found by inspection.
.OP point found by inspection.

.step l_val=1.273e-05 c_val=1.91e-05 r_val=1
.OP point found by inspection.
.OP point found by inspection.

.step l_val=1.5915e-05 c_val=1.91e-05 r_val=1
.OP point found by inspection.
.OP point found by inspection.

.step l_val=1.91e-05 c_val=1.91e-05 r_val=1
.OP point found by inspection.
.OP point found by inspection.

.step l_val=1.273e-05 c_val=1.273e-05 r_val=1.2
.OP point found by inspection.
.OP point found by inspection.

.step l_val=1.5915e-05 c_val=1.273e-05 r_val=1.2
.OP point found by inspection.
.OP point found by inspection.

.step l_val=1.91e-05 c_val=1.273e-05 r_val=1.2
.OP point found by inspection.
.OP point found by inspection.

.step l_val=1.273e-05 c_val=1.5915e-05 r_val=1.2
.OP point found by inspection.
.OP point found by inspection.

.step l_val=1.5915e-05 c_val=1.5915e-05 r_val=1.2
.OP point found by inspection.
.OP point found by inspection.

.step l_val=1.91e-05 c_val=1.5915e-05 r_val=1.2
.OP point found by inspection.
.OP point found by inspection.

.step l_val=1.273e-05 c_val=1.91e-05 r_val=1.2
.OP point found by inspection.
.OP point found by inspection.

.step l_val=1.5915e-05 c_val=1.91e-05 r_val=1.2
.OP point found by inspection.
.OP point found by inspection.

.step l_val=1.91e-05 c_val=1.91e-05 r_val=1.2
.OP point found by inspection.
.OP point found by inspection.
Total elapsed time: 1.803 seconds.

Files loaded:
C:\Users\Administrator\Desktop\da636372-2fe8-4984-b35e-be6bc09d6a2b\Low_Pass.net

