LTspice 26.0.2 for Windows
Circuit: C:\Users\Administrator\Desktop\fdf8c503-866c-4255-8b8c-921f612cd582\SallenKey_Bandpass.net
Start Time: Wed Jun 24 10:59:57 2026
solver = Normal
Maximum thread count: 4
tnom = 27
temp = 27
method = trap
Direct Newton iteration succeeded in finding operating point.
Total elapsed time: 0.051 seconds.

Files loaded:
C:\Users\Administrator\Desktop\fdf8c503-866c-4255-8b8c-921f612cd582\SallenKey_Bandpass.net
C:\Users\Administrator\AppData\Local\LTspice\lib\sub\UniversalOpAmp1.lib

