LTspice 26.0.2 for Windows
Circuit: C:\Users\Administrator\Desktop\1f77f456-baad-44be-8a89-ee3a53c02d6c\MCU_ADC_Protection.net
Start Time: Sat Jun 27 11:32:03 2026
solver = Normal
Maximum thread count: 4
tnom = 27
temp = 27
method = trap
Direct Newton iteration succeeded in finding operating point.
Total elapsed time: 0.303 seconds.

Files loaded:
C:\Users\Administrator\Desktop\1f77f456-baad-44be-8a89-ee3a53c02d6c\MCU_ADC_Protection.net
C:\Users\Administrator\AppData\Local\LTspice\lib\cmp\standard.dio

